data/GhanaGrid.m
%%%%%%%%%%%%%%%%%%%%%%%%%%%%%%%%%%%%%%%%%%%%%%%%%%%%%%%%%%%%%%%%%%%%%%%%%%%
%%%%                                                                  %%%%%
%%%%                 Synthetic Electric Grid for Ghana                %%%%%
%%%%           (https://github.com/Haddoww/ORS-Ghana-Power)           %%%%%
%%%%                         04 - April - 2025                        %%%%%
%%%%                                                                  %%%%%
%%%%%%%%%%%%%%%%%%%%%%%%%%%%%%%%%%%%%%%%%%%%%%%%%%%%%%%%%%%%%%%%%%%%%%%%%%%
%
%   DC Optimal Power flow data for Ghanaian electricity transmission system.
%   Please see CASEFORMAT for details on the case file format.
%
%   This case accurately represents the size and complexity of Ghanaian
%   high voltage transmission network. These data can be used to validate 
%   mathematical methods and for future applied and policy research.
%   
%
%    When publishing results using this data, please cite:
%    R. Asiamah, K. Ji, T. Manoj, R. Williams and D. Molzahn,
%    "Developing a Synthetic Electric Grid in Africa: A Case Study in Ghana",
%    Power and Energy COnference at Illinois (PECI), 2025.
%
%   Contacts (primary contact for this file : Richard Asiamah):
%   asiamah@gatech.edu
%   Graduate Research Assistant,
%   Grid Optimization and Algorithms Lab,
%   Georgia Institute of Technology, Atlanta, GA 30332, USA.
%
%
%% MATPOWER Case Format : Version 2
function mpc = GhanaGrid
mpc.version = '2';

%%-----  Power Flow Data  -----%%
%% system MVA base
mpc.baseMVA = 100.0;
%% bus data
%    bus_i    type    Pd    Qd    Gs    Bs    area    Vm    Va    baseKV    zone    Vmax    Vmin
mpc.bus = [
	1	1	78.85149954	25.91723457	0.0	0.0	1	1.0	0.0	161.0	1	1.1	0.9				
	2	1	0.0	0.0	0.0	0.0	1	1.0	0.0	161.0	1	1.1	0.9				
	3	1	7.496575342	2.464005158	0.0	0.0	1	1.0	0.0	161.0	1	1.1	0.9				
	4	2	275.6964011	90.61702488	0.0	0.0	1	1.0	0.0	161.0	1	1.1	0.9				
	5	1	23.31741349	7.664063188	0.0	0.0	1	1.0	0.0	33.0	1	1.1	0.9				
	6	3	6.580097319	2.162773399	0.0	0.0	1	1.0	0.0	161.0	1	1.1	0.9				
	7	1	54.99864676	18.077181	0.0	0.0	1	1.0	0.0	161.0	1	1.1	0.9				
	8	2	7.902567859000001	2.597448445	0.0	0.0	1	1.0	0.0	161.0	1	1.1	0.9				
	9	1	62.68187804000001	20.602537	0.0	0.0	1	1.0	0.0	161.0	1	1.1	0.9				
	10	1	16.21800457	5.33060032	0.0	0.0	1	1.0	0.0	161.0	1	1.1	0.9				
	11	1	13.560161340000002	4.457009496	0.0	0.0	1	1.0	0.0	161.0	1	1.1	0.9				
	12	1	20.2628291	6.66006985	0.0	0.0	1	1.0	0.0	161.0	1	1.1	0.9				
	13	1	42.79321134	14.065448380000001	0.0	0.0	1	1.0	0.0	34.5	1	1.1	0.9				
	14	1	0.0	0.0	0.0	0.0	1	1.0	0.0	161.0	1	1.1	0.9				
	15	1	7.496575342	2.464005158	0.0	0.0	1	1.0	0.0	161.0	1	1.1	0.9				
	16	1	6.847816965000001	2.250768592	0.0	0.0	1	1.0	0.0	161.0	1	1.1	0.9				
	17	2	27.855745320000004	9.155740724	0.0	0.0	1	1.0	0.0	161.0	1	1.1	0.9				
	18	1	0.0	0.0	0.0	0.0	1	1.0	0.0	161.0	1	1.1	0.9				
	19	1	0.0	0.0	0.0	0.0	1	1.0	0.0	161.0	1	1.1	0.9				
	20	2	0.0	0.0	0.0	0.0	1	1.0	0.0	161.0	1	1.1	0.9				
	21	1	32.09410212	10.54882124	0.0	0.0	1	1.0	0.0	34.5	1	1.1	0.9				
	22	1	71.63919679	23.54666529	0.0	0.0	1	1.0	0.0	161.0	1	1.1	0.9				
	23	1	0.0	0.0	0.0	0.0	1	1.0	0.0	161.0	1	1.1	0.9				
	24	1	26.413929880000005	8.681838906	0.0	0.0	1	1.0	0.0	330.0	1	1.1	0.9				
	25	1	4.548008441	1.494858085	0.0	0.0	1	1.0	0.0	330.0	1	1.1	0.9				
	26	1	0.0	0.0	0.0	0.0	1	1.0	0.0	161.0	1	1.1	0.9				
	27	1	12.01512868	3.94918182	0.0	0.0	1	1.0	0.0	161.0	1	1.1	0.9				
	28	1	0.0	0.0	0.0	0.0	1	1.0	0.0	161.0	1	1.1	0.9				
	29	1	0.0	0.0	0.0	0.0	1	1.0	0.0	161.0	1	1.1	0.9				
	30	1	0.0	0.0	0.0	0.0	1	1.0	0.0	161.0	1	1.1	0.9				
	31	1	5.947891891	1.954977524	0.0	0.0	1	1.0	0.0	161.0	1	1.1	0.9				
	32	2	18.49523433	6.079089545	0.0	0.0	1	1.0	0.0	161.0	1	1.1	0.9				
	33	1	0.0	0.0	0.0	0.0	1	1.0	0.0	161.0	1	1.1	0.9				
	34	2	0.0	0.0	0.0	0.0	1	1.0	0.0	161.0	1	1.1	0.9				
	35	1	23.36257102	7.678905751000001	0.0	0.0	1	1.0	0.0	161.0	1	1.1	0.9				
	36	1	100.759353	33.11799777	0.0	0.0	1	1.0	0.0	161.0	1	1.1	0.9				
	37	1	0.0	0.0	0.0	0.0	1	1.0	0.0	161.0	1	1.1	0.9				
	38	1	32.8173516	10.78654184	0.0	0.0	1	1.0	0.0	161.0	1	1.1	0.9				
	39	1	23.7270568	7.798706434	0.0	0.0	1	1.0	0.0	161.0	1	1.1	0.9				
	40	1	13.34082476	4.384917049	0.0	0.0	1	1.0	0.0	161.0	1	1.1	0.9				
	41	1	27.4543379	9.023804486	0.0	0.0	1	1.0	0.0	161.0	1	1.1	0.9				
	42	1	35.38415078	11.63020794	0.0	0.0	1	1.0	0.0	161.0	1	1.1	0.9				
	43	1	66.41059986	21.82810859	0.0	0.0	1	1.0	0.0	161.0	1	1.1	0.9				
	44	1	10.43461511	3.429692131	0.0	0.0	1	1.0	0.0	161.0	1	1.1	0.9				
	45	2	20.56602966	6.759727056000001	0.0	0.0	1	1.0	0.0	161.0	1	1.1	0.9				
	46	1	15.789008029999998	5.189595975	0.0	0.0	1	1.0	0.0	161.0	1	1.1	0.9				
	47	1	352.5932246	115.89178850000002	0.0	0.0	1	1.0	0.0	161.0	1	1.1	0.9				
	48	1	32.8173516	10.78654184	0.0	0.0	1	1.0	0.0	161.0	1	1.1	0.9				
	49	2	99.96264511	32.85613256	0.0	0.0	1	1.0	0.0	161.0	1	1.1	0.9				
	50	1	24.00445306	7.889882176	0.0	0.0	1	1.0	0.0	161.0	1	1.1	0.9				
	51	1	0.0	0.0	0.0	0.0	1	1.0	0.0	161.0	1	1.1	0.9				
	52	1	12.521538129999998	4.115630557	0.0	0.0	1	1.0	0.0	161.0	1	1.1	0.9				
	53	1	22.93034894	7.536841224	0.0	0.0	1	1.0	0.0	161.0	1	1.1	0.9				
	54	1	34.90677117	11.47330085	0.0	0.0	1	1.0	0.0	161.0	1	1.1	0.9				
	55	1	17.71142862	5.821465067	0.0	0.0	1	1.0	0.0	161.0	1	1.1	0.9				
	56	1	2.206267925	0.725165199	0.0	0.0	1	1.0	0.0	161.0	1	1.1	0.9				
	57	2	0.0	0.0	0.0	0.0	1	1.0	0.0	161.0	1	1.1	0.9				
	58	1	43.35768047	14.25098041	0.0	0.0	1	1.0	0.0	161.0	1	1.1	0.9				
	59	1	38.83870187	12.765663969999999	0.0	0.0	1	1.0	0.0	161.0	1	1.1	0.9				
	60	1	27.4543379	9.023804486	0.0	0.0	1	1.0	0.0	161.0	1	1.1	0.9				
	61	1	0.0	0.0	0.0	0.0	1	1.0	0.0	161.0	1	1.1	0.9				
	62	1	21.94010881	7.211365031	0.0	0.0	1	1.0	0.0	161.0	1	1.1	0.9				
	63	1	7.496575342	2.464005158	0.0	0.0	1	1.0	0.0	161.0	1	1.1	0.9				
	64	1	0.0	0.0	0.0	0.0	1	1.0	0.0	161.0	1	1.1	0.9				
	65	1	10.11206132	3.3236738269999995	0.0	0.0	1	1.0	0.0	161.0	1	1.1	0.9				
	66	1	0.0	0.0	0.0	0.0	1	1.0	0.0	161.0	1	1.1	0.9				
	67	1	0.0	0.0	0.0	0.0	1	1.0	0.0	161.0	1	1.1	0.9				
	68	1	0.0	0.0	0.0	0.0	1	1.0	0.0	161.0	1	1.1	0.9				
	69	1	18.11462086	5.953987946	0.0	0.0	1	1.0	0.0	161.0	1	1.1	0.9				
	70	1	0.0	0.0	0.0	0.0	1	1.0	0.0	161.0	1	1.1	0.9				
	71	2	39.11932367	12.8578999	0.0	0.0	1	1.0	0.0	161.0	1	1.1	0.9				
	72	1	61.317475509999994	20.15407957	0.0	0.0	1	1.0	0.0	161.0	1	1.1	0.9				
	73	2	216.17232459999997	71.05240708	0.0	0.0	1	1.0	0.0	161.0	1	1.1	0.9				
	74	1	19.79190056	6.505283127	0.0	0.0	1	1.0	0.0	161.0	1	1.1	0.9				
	75	1	19.23065697	6.320811277999999	0.0	0.0	1	1.0	0.0	161.0	1	1.1	0.9				
	76	1	82.43184661	27.094037739999997	0.0	0.0	1	1.0	0.0	34.5	1	1.1	0.9				
	77	1	10.79264982	3.5473724479999995	0.0	0.0	1	1.0	0.0	161.0	1	1.1	0.9				
	78	2	14.86972973	4.887443809	0.0	0.0	1	1.0	0.0	330.0	1	1.1	0.9				
	79	2	52.11179034	17.12831718	0.0	0.0	1	1.0	0.0	161.0	1	1.1	0.9				
	80	2	75.00020729	24.65137602	0.0	0.0	1	1.0	0.0	161.0	1	1.1	0.9				
	81	1	26.507470480000002	8.712584214	0.0	0.0	1	1.0	0.0	161.0	1	1.1	0.9				
	82	1	27.4543379	9.023804486	0.0	0.0	1	1.0	0.0	161.0	1	1.1	0.9				
	83	1	27.4543379	9.023804486	0.0	0.0	1	1.0	0.0	161.0	1	1.1	0.9				
	84	1	15.44710101	5.077216573	0.0	0.0	1	1.0	0.0	161.0	1	1.1	0.9	
	85	1	0	0	0	0	1	1	0	69	1	1.1	0.9;
	86	1	0	0	0	0	1	1	0	330	1	1.1	0.9;
	87	1	0	0	0	0	1	1	0	330	1	1.1	0.9;
	88	1	0	0	0	0	1	1	0	330	1	1.1	0.9;
	89	1	0	0	0	0	1	1	0	330	1	1.1	0.9;
	90	1	0	0	0	0	1	1	0	330	1	1.1	0.9;
	91	1	0	0	0	0	1	1	0	330	1	1.1	0.9;
	92	1	0	0	0	0	1	1	0	330	1	1.1	0.9;
	93	1	0	0	0	0	1	1	0	330	1	1.1	0.9;
	94	1	0	0	0	0	1	1	0	330	1	1.1	0.9;
	95	1	0	0	0	0	1	1	0	225	1	1.1	0.9;
	96	1	0	0	0	0	1	1	0	225	1	1.1	0.9;
	97	1	0	0	0	0	1	1	0	225	1	1.1	0.9;
	98	1	0	0	0	0	1	1	0	30	1	1.1	0.9;
	99	1	0	0	0	0	1	1	0	35	1	1.1	0.9				
];

%% generator data
%    bus    Pg    Qg    Qmax    Qmin    Vg    mBase    status    Pmax    Pmin    Pc1    Pc2    Qc1min    Qc1max    Qc2min    Qc2max    ramp_agc    ramp_10    ramp_30    ramp_q    apf
mpc.gen = [
	6	4.298	0.13	391.68	-49.98	1.0	100.0	1	1019.9999999999999	204.0															
	20	0.747	0.173	153.6	-19.6	1.0	100.0	1	404.0	80.8															
	45	1.046	0.387	61.44	-7.84	1.0	100.0	1	160.0	32.0															
	73	0.009	0.017	167.97	-36.63	1.0	100.0	1	330.0	16.5															
	73	0.009	0.017	167.97	-36.63	1.0	100.0	1	340.0	17.0															
	34	0.009	-0.077	285.04	-62.16	1.0	100.0	1	560.0	28.000000000000004															
	57	0.01	-0.019	55.99000000000001	-12.21	1.0	100.0	1	110.00000000000001	5.5															
	57	0.01	0.132	40.72	-8.88	1.0	100.0	1	80.0	11.0															
	57	0.01	-0.019	55.99000000000001	-12.21	1.0	100.0	1	110.00000000000001	12.5															
	6	0.018	0.622	111.98000000000002	-24.42	1.0	100.0	1	220.00000000000003	23.5															
	78	0.014000000000000002	-0.05	127.25	-27.750000000000004	1.0	100.0	1	250.0	18.5															
	4	0.012	0.286	229.05	-49.95	1.0	100.0	1	470.0	18.0															
	49	0.01	-0.19	188.33	-41.07	1.0	100.0	1	370.0	10.5															
	49	0.01	-0.072	173.06	-37.74	1.0	100.0	1	360.0	10.0															
	73	0.009	0.439	101.8	-22.2	1.0	100.0	1	210.0	9.5															
	49	0.011	0.418	98.746	-21.534	1.0	100.0	1	200.0	0.0															
	8	0.01	0.13	95.692	-20.868	1.0	100.0	1	190.0	0.0															
	17	0.014000000000000002	0.007000000000000001	1.45	-1.45	1.0	100.0	1	2.5	0.0															
	80	0.144	0.021	9.16	-9.16	1.0	100.0	1	20.0	0.0															
	80	0.144	0.021	9.16	-9.16	1.0	100.0	1	20.0	0.0															
	79	0.033	-0.017	2.98	-2.98	1.0	100.0	1	6.5	0.0															
	79	0.078	-0.124	7.79	-7.79	1.0	100.0	1	17.0	0.0															
	32	0.0	-0.001	-0.002	-0.0225	1.0	100.0	1	0.05	0.0															
	71	0.45799999999999996	0.376	25.2	-25.2	1.0	100.0	1	55.00000000000001	0.0															
	78	0.0	0.0	0.05	-0.05	1.0	100.0	1	0.1	0.0			
	%%  The following five generators are projected installations as of March 2025. Status can change from 0 to 1 to activate them into operation.												
	40	1.454	0.259	458.23	-458.23	1.0	100.0	0	1000.0	0.0															
	65	0.27	-0.164	114.56	-114.56	1.0	100.0	0	250.0	0.0															
	40	0.538	0.045	59.57	-59.57	1.0	100.0	0	130.0	0.0															
	17	0.725	1.019	45.82	-45.82	1.0	100.0	0	100.0	0.0															
	40	0.33	0.024	32.07	-32.07	1.0	100.0	0	70.0	0.0															
];

%% branch data
%    f_bus    t_bus    r    x    b    rateA    rateB    rateC    ratio    angle    status    angmin    angmax
mpc.branch = [
	1	4	0.0034	0.0163	6.4e-5	218.50696770005743	218.50696770005743	218.50696770005743	0	0	1	-60.0001403060998	60.0001403060998								
	1	4	0.0034	0.0163	6.45e-5	218.50694067205768	218.50694067205768	218.50694067205768	0	0	1	-60.0001403060998	60.0001403060998								
	1	4	0.0034	0.0163	6.45e-5	218.5069382317015	218.5069382317015	218.5069382317015	0	0	1	-60.0001403060998	60.0001403060998								
	1	78	0.0047	0.0229	6.06e-5	213.00000003165042	213.00000003165042	213.00000003165042	0	0	1	-60.0001403060998	60.0001403060998								
	1	78	0.0047	0.0229	6.06e-5	213.00000003165042	213.00000003165042	213.00000003165042	0	0	1	-60.0001403060998	60.0001403060998								
	1	78	0.0047	0.0229	6.06e-5	213.00000003165042	213.00000003165042	213.00000003165042	0	0	1	-60.0001403060998	60.0001403060998								
	1	78	0.0047	0.0229	6.06e-5	213.00000003165042	213.00000003165042	213.00000003165042	0	0	1	-60.0001403060998	60.0001403060998								
	2	22	0.028001697	0.09175818	1.35e-5	233.51580494749032	233.51580494749032	233.51580494749032	0	0	1	-60.0001403060998	60.0001403060998								
	2	22	0.028001697	0.09175818	1.35e-5	233.51580497845862	233.51580497845862	233.51580497845862	0	0	1	-60.0001403060998	60.0001403060998								
	2	61	0.001573444	0.01670853	6.94e-5	875.0	875.0	875.0	0	0	1	-60.0001403060998	60.0001403060998								
	2	61	0.001573444	0.01670853	6.94e-5	875.0	875.0	875.0	0	0	1	-60.0001403060998	60.0001403060998								
	2	73	0.0061	0.0235	6.11e-5	170.00000002110028	170.00000002110028	170.00000002110028	0	0	1	-60.0001403060998	60.0001403060998								
	2	73	0.0061	0.0235	6.11e-5	170.00000002110028	170.00000002110028	170.00000002110028	0	0	1	-60.0001403060998	60.0001403060998								
	2	75	0.026726747	0.08758032	1.41e-5	392.95293097865215	392.95293097865215	392.95293097865215	0	0	1	-60.0001403060998	60.0001403060998								
	2	78	0.9	5.67	3.34e-5	1750.0000000007162	1750.0000000007162	1750.0000000007162	0	0	1	-60.0001403060998	60.0001403060998								
	2	80	0.062897573	0.20610774	6.01e-6	213.00000083175564	213.00000083175564	213.00000083175564	0	0	1	-60.0001403060998	60.0001403060998								
	4	45	0.037398557	0.12255055	1.01e-5	213.0000000062073	213.0000000062073	213.0000000062073	0	0	1	-60.0001403060998	60.0001403060998								
	4	49	0.7	2.4	7.55e-5	170.00000000673026	170.00000000673026	170.00000000673026	0	0	1	-60.0001403060998	60.0001403060998								
	4	49	0.7	2.4	7.55e-5	170.00000000673026	170.00000000673026	170.00000000673026	0	0	1	-60.0001403060998	60.0001403060998								
	4	80	0.027293391	0.08943714	1.38e-5	309.79449396498967	309.79449396498967	309.79449396498967	0	0	1	-60.0001403060998	60.0001403060998								
	5	10	0.03295984	0.10800541	1.15e-5	213.0	213.0	213.0	0	0	1	-60.0001403060998	60.0001403060998								
	5	10	0.03295984	0.10800541	1.15e-5	213.0	213.0	213.0	0	0	1	-60.0001403060998	60.0001403060998								
	5	48	0.001322171	0.0043326	0.000285821	213.0	213.0	213.0	0	0	1	-60.0001403060998	60.0001403060998								
	5	48	0.001322171	0.0043326	0.000285821	213.0	213.0	213.0	0	0	1	-60.0001403060998	60.0001403060998								
	6	10	0.0394	0.0889	1.45e-5	139.33087993077206	139.33087993077206	139.33087993077206	0	0	1	-60.0001403060998	60.0001403060998								
	6	10	0.0394	0.0889	1.45e-5	139.33087993077206	139.33087993077206	139.33087993077206	0	0	1	-60.0001403060998	60.0001403060998								
	6	46	0.011616219	0.03806494	3.25e-5	213.00000000552518	213.00000000552518	213.00000000552518	0	0	1	-60.0001403060998	60.0001403060998								
	6	45	0.0077	0.0381	5.6e-5	213.00000000536602	213.00000000536602	213.00000000536602	0	0	1	-60.0001403060998	60.0001403060998								
	6	45	0.0077	0.0381	5.6e-5	213.00000000536602	213.00000000536602	213.00000000536602	0	0	1	-60.0001403060998	60.0001403060998								
	6	45	0.0077	0.0381	5.6e-5	213.00000000536602	213.00000000536602	213.00000000536602	0	0	1	-60.0001403060998	60.0001403060998								
	6	45	0.0077	0.0381	5.6e-5	213.00000000536602	213.00000000536602	213.00000000536602	0	0	1	-60.0001403060998	60.0001403060998								
	6	47	0.104876509	0.34366764	3.6e-6	685.2366375898105	685.2366375898105	685.2366375898105	0	0	1	-60.0001403060998	60.0001403060998								
	6	72	2.7	9.7	1.34e-5	170.0000000071232	170.0000000071232	170.0000000071232	0	0	1	-60.0001403060998	60.0001403060998								
	6	72	1.6	6.8	1.34e-5	364.00000000333813	364.00000000333813	364.00000000333813	0	0	1	-60.0001403060998	60.0001403060998								
	6	78	0.0212	0.1029	1.18e-5	213.00000000543423	213.00000000543423	213.00000000543423	0	0	1	-60.0001403060998	60.0001403060998								
	6	78	0.0212	0.1029	1.18e-5	213.00000000543423	213.00000000543423	213.00000000543423	0	0	1	-60.0001403060998	60.0001403060998								
	6	78	0.0212	0.1029	1.18e-5	213.00000000543423	213.00000000543423	213.00000000543423	0	0	1	-60.0001403060998	60.0001403060998								
	6	78	0.0212	0.1029	1.18e-5	213.00000000543423	213.00000000543423	213.00000000543423	0	0	1	-60.0001403060998	60.0001403060998								
	7	54	0.046795417	0.15334292	8.08e-6	213.00000001427907	213.00000001427907	213.00000001427907	0	0	1	-60.0001403060998	60.0001403060998								
	7	72	0.026679526	0.08742558	1.42e-5	213.00000000636646	213.00000000636646	213.00000000636646	0	0	1	-60.0001403060998	60.0001403060998								
	8	16	0.023704641	0.07767724	1.59e-5	213.0000000203011	213.0000000203011	213.0000000203011	0	0	1	-60.0001403060998	60.0001403060998								
	9	11	0.024554608	0.08046248	1.54e-5	213.00000000709406	213.00000000709406	213.00000000709406	0	0	1	-60.0001403060998	60.0001403060998								
	9	14	0.498582778	0.68019	2.32e-7	58.19691	58.19691	58.19691	0	0	1	-60.0001403060998	60.0001403060998								
	9	29	0.022618572	0.07411832	1.67e-5	213.0000000075488	213.0000000075488	213.0000000075488	0	0	1	-60.0001403060998	60.0001403060998								
	9	35	0.032345974	0.10599385	1.17e-5	213.00000000836735	213.00000000836735	213.00000000836735	0	0	1	-60.0001403060998	60.0001403060998								
	10	32	0.112114262	0.16406217	2.65e-5	142.96067396016883	142.96067396016883	142.96067396016883	0	0	1	-60.0001403060998	60.0001403060998								
	10	69	0.093991682	0.13754253	3.16e-5	93.21897	93.21897	93.21897	0	0	1	-60.0001403060998	60.0001403060998								
	11	24	0.008405231	0.02754293	4.5e-5	213.00000000727596	213.00000000727596	213.00000000727596	0	0	1	-60.0001403060998	60.0001403060998								
	11	29	0.001936036	0.00634416	0.000195195	213.00000000509317	213.00000000509317	213.00000000509317	0	0	1	-60.0001403060998	60.0001403060998								
	11	29	0.001936036	0.00634416	0.000195195	213.00000000509317	213.00000000509317	213.00000000509317	0	0	1	-60.0001403060998	60.0001403060998								
	12	66	0.012796729	0.04193333	2.95e-5	213.0	213.0	213.0	0	0	1	-60.0001403060998	60.0001403060998								
	12	84	0.013505035	0.04425437	2.8e-5	213.0	213.0	213.0	0	0	1	-60.0001403060998	60.0001403060998								
	13	71	0.016668801	0.05462165	2.27e-5	213.0	213.0	213.0	0	0	1	-60.0001403060998	60.0001403060998								
	15	25	0.008830771	0.0937747	1.24e-5	875.0	875.0	875.0	0	0	1	-60.0001403060998	60.0001403060998								
	16	24	0.030834921	0.10104231	1.23e-5	593.5251551872061	593.5251551872061	593.5251551872061	0	0	1	-60.0001403060998	60.0001403060998								
	16	62	0.006374754	0.0208893	5.93e-5	425.65073460708663	425.65073460708663	425.65073460708663	0	0	1	-60.0001403060998	60.0001403060998								
	17	52	0.013127271	0.04301648	2.88e-5	213.00000000538876	213.00000000538876	213.00000000538876	0	0	1	-60.0001403060998	60.0001403060998								
	17	74	0.075174878	0.24633898	5.03e-6	213.00000000775344	213.00000000775344	213.00000000775344	0	0	1	-60.0001403060998	60.0001403060998								
	17	84	0.024460167	0.08015301	1.54e-5	213.0	213.0	213.0	0	0	1	-60.0001403060998	60.0001403060998								
	18	41	0.062210993	0.30910009	3.73e-6	740.0	740.0	740.0	0	0	1	-60.0001403060998	60.0001403060998								
	18	55	0.006102507	0.06480303	1.79e-5	875.0	875.0	875.0	0	0	1	-60.0001403060998	60.0001403060998								
	18	60	0.026625215	0.13228942	8.72e-6	740.0	740.0	740.0	0	0	1	-60.0001403060998	60.0001403060998								
	18	60	0.026625215	0.13228942	8.72e-6	740.0	740.0	740.0	0	0	1	-60.0001403060998	60.0001403060998								
	18	83	0.030135704	0.14973156	7.7e-6	740.0	740.0	740.0	0	0	1	-60.0001403060998	60.0001403060998								
	19	26	0.022949115	0.07520147	1.65e-5	213.00000000527507	213.00000000527507	213.00000000527507	0	0	1	-60.0001403060998	60.0001403060998								
	19	26	0.022949115	0.07520147	1.65e-5	213.00000000527507	213.00000000527507	213.00000000527507	0	0	1	-60.0001403060998	60.0001403060998								
	19	27	0.010388488	0.03404182	3.64e-5	213.00000001309672	213.00000001309672	213.00000001309672	0	0	1	-60.0001403060998	60.0001403060998								
	19	31	0.018982601	0.06220369	1.99e-5	213.0000000110049	213.0000000110049	213.0000000110049	0	0	1	-60.0001403060998	60.0001403060998								
	20	40	0.03177933	0.10413702	1.19e-5	213.0000000174623	213.0000000174623	213.0000000174623	0	0	1	-60.0001403060998	60.0001403060998								
	20	65	0.066722426	0.21864132	5.66e-6	213.0000000100954	213.0000000100954	213.0000000100954	0	0	1	-60.0001403060998	60.0001403060998								
	20	71	0.065400255	0.21430873	5.78e-6	213.00000000538876	213.00000000538876	213.00000000538876	0	0	1	-60.0001403060998	60.0001403060998								
	20	76	0.050573049	0.16572177	7.47e-6	213.00000000582077	213.00000000582077	213.00000000582077	0	0	1	-60.0001403060998	60.0001403060998								
	21	40	0.039759577	0.13028733	9.5e-6	213.00000000777618	213.00000000777618	213.00000000777618	0	0	1	-60.0001403060998	60.0001403060998								
	21	64	0.041695614	0.13663148	9.06e-6	213.00000000545697	213.00000000545697	213.00000000545697	0	0	1	-60.0001403060998	60.0001403060998								
	21	74	0.048212029	0.15798499	7.84e-6	213.00000000550244	213.00000000550244	213.00000000550244	0	0	1	-60.0001403060998	60.0001403060998								
	22	49	0.05336	0.18728	6.61e-6	193.1862576564481	193.1862576564481	193.1862576564481	0	0	1	-60.0001403060998	60.0001403060998								
	22	80	0.034895876	0.11434957	1.08e-5	213.00000002696652	213.00000002696652	213.00000002696652	0	0	1	-60.0001403060998	60.0001403060998								
	22	80	0.034895876	0.11434957	1.08e-5	213.00000002696652	213.00000002696652	213.00000002696652	0	0	1	-60.0001403060998	60.0001403060998								
	23	34	0.005102865	0.05418775	2.14e-5	875.0	875.0	875.0	0	0	1	-60.0001403060998	60.0001403060998								
	24	29	0.006469195	0.02119877	5.84e-5	213.00000000909495	213.00000000909495	213.00000000909495	0	0	1	-60.0001403060998	60.0001403060998								
	24	54	0.014685545	0.04812275	2.57e-5	311.79775785975653	311.79775785975653	311.79775785975653	0	0	1	-60.0001403060998	60.0001403060998								
	25	61	0.002562259	0.02720884	4.26e-5	875.0	875.0	875.0	0	0	1	-60.0001403060998	60.0001403060998								
	25	61	0.002562259	0.02720884	4.26e-5	875.0	875.0	875.0	0	0	1	-60.0001403060998	60.0001403060998								
	26	27	0.033337603	0.10924329	1.13e-5	213.00000000572982	213.00000000572982	213.00000000572982	0	0	1	-60.0001403060998	60.0001403060998								
	26	31	0.041931716	0.13740516	9.01e-6	213.00000000591172	213.00000000591172	213.00000000591172	0	0	1	-60.0001403060998	60.0001403060998								
	27	51	0.004728741	0.02349511	4.91e-5	740.0	740.0	740.0	0	0	1	-60.0001403060998	60.0001403060998								
	27	62	0.011332948	0.05630862	2.05e-5	740.0000000016371	740.0000000016371	740.0000000016371	0	0	1	-60.0001403060998	60.0001403060998								
	27	63	0.023130756	0.11492693	1.0e-5	740.0	740.0	740.0	0	0	1	-60.0001403060998	60.0001403060998								
	28	68	0.001699934	0.00557048	0.000222305	213.0	213.0	213.0	0	0	1	-60.0001403060998	60.0001403060998								
	28	68	0.001699934	0.00557048	0.000222305	213.0	213.0	213.0	0	0	1	-60.0001403060998	60.0001403060998								
	3	27	0.000160296	0.00079644	0.001448175	740.0	740.0	740.0	0	0	1	-60.0001403060998	60.0001403060998								
	30	39	0.04948698	0.16216285	7.64e-6	213.0000000054115	213.0000000054115	213.0000000054115	0	0	1	-60.0001403060998	60.0001403060998								
	30	39	0.04948698	0.16216285	7.64e-6	213.0000000054115	213.0000000054115	213.0000000054115	0	0	1	-60.0001403060998	60.0001403060998								
	30	47	0.004910922	0.0160925	7.7e-5	213.00000002110028	213.00000002110028	213.00000002110028	0	0	1	-60.0001403060998	60.0001403060998								
	30	47	0.004910922	0.0160925	7.7e-5	213.00000002110028	213.00000002110028	213.00000002110028	0	0	1	-60.0001403060998	60.0001403060998								
	30	54	0.023893523	0.07829618	1.58e-5	213.0000000279215	213.0000000279215	213.0000000279215	0	0	1	-60.0001403060998	60.0001403060998								
	30	59	0.020871417	0.06839311	1.81e-5	232.04679613953704	232.04679613953704	232.04679613953704	0	0	1	-60.0001403060998	60.0001403060998								
	31	73	0.033148721	0.10862435	1.14e-5	227.29698699666915	227.29698699666915	227.29698699666915	0	0	1	-60.0001403060998	60.0001403060998								
	32	44	0.064196933	0.09394245	4.63e-5	115.267822455	115.267822455	115.267822455	0	0	1	-60.0001403060998	60.0001403060998								
	33	68	0.001794375	0.00587995	0.000210605	213.0	213.0	213.0	0	0	1	-60.0001403060998	60.0001403060998								
	34	70	0.000635152	0.00674473	0.000171801	875.0000000019872	875.0000000019872	875.0000000019872	0	0	1	-60.0001403060998	60.0001403060998								
	34	70	0.000635152	0.00674473	0.000171801	875.0000000019872	875.0000000019872	875.0000000019872	0	0	1	-60.0001403060998	60.0001403060998								
	35	50	0.038531847	0.1262642	9.81e-6	213.00000000654836	213.00000000654836	213.00000000654836	0	0	1	-60.0001403060998	60.0001403060998								
	36	40	0.005687493	0.06039597	1.92e-5	875.0000000012733	875.0000000012733	875.0000000012733	0	0	1	-60.0001403060998	60.0001403060998								
	36	42	0.017093785	0.05601427	2.21e-5	213.0000000066393	213.0000000066393	213.0000000066393	0	0	1	-60.0001403060998	60.0001403060998								
	36	47	0.008641333	0.0283166	4.37e-5	435.73404405787005	435.73404405787005	435.73404405787005	0	0	1	-60.0001403060998	60.0001403060998								
	37	68	0.002786004	0.0091294	0.000135644	213.0	213.0	213.0	0	0	1	-60.0001403060998	60.0001403060998								
	37	68	0.002786004	0.0091294	0.000135644	213.0	213.0	213.0	0	0	1	-60.0001403060998	60.0001403060998								
	38	81	0.004911598	0.05215667	2.22e-5	875.0	875.0	875.0	0	0	1	-60.0001403060998	60.0001403060998								
	39	47	0.054397901	0.17825535	6.95e-6	213.00000000534328	213.00000000534328	213.00000000534328	0	0	1	-60.0001403060998	60.0001403060998								
	39	59	0.070358397	0.23055596	5.37e-6	213.0000000064574	213.0000000064574	213.0000000064574	0	0	1	-60.0001403060998	60.0001403060998								
	39	71	0.018321515	0.06003739	2.06e-5	213.00000000763976	213.00000000763976	213.00000000763976	0	0	1	-60.0001403060998	60.0001403060998								
	40	55	0.006434518	0.06832869	1.7e-5	875.0000000015461	875.0000000015461	875.0000000015461	0	0	1	-60.0001403060998	60.0001403060998								
	40	76	0.029182207	0.09562657	1.29e-5	213.0000000064574	213.0000000064574	213.0000000064574	0	0	1	-60.0001403060998	60.0001403060998								
	42	58	0.024507388	0.08030775	1.54e-5	213.00000000554792	213.00000000554792	213.00000000554792	0	0	1	-60.0001403060998	60.0001403060998								
	43	44	0.109656963	0.16046629	2.71e-5	99.61589979	99.61589979	99.61589979	0	0	1	-60.0001403060998	60.0001403060998								
	45	78	0.0114	0.0843	1.5e-5	273.0000000041837	273.0000000041837	273.0000000041837	0	0	1	-60.0001403060998	60.0001403060998								
	45	78	0.0114	0.0843	1.5e-5	273.0000000041837	273.0000000041837	273.0000000041837	0	0	1	-60.0001403060998	60.0001403060998								
	45	78	0.0114	0.0843	1.5e-5	273.0000000041837	273.0000000041837	273.0000000041837	0	0	1	-60.0001403060998	60.0001403060998								
	45	78	0.0114	0.0843	1.5e-5	273.0000000041837	273.0000000041837	273.0000000041837	0	0	1	-60.0001403060998	60.0001403060998								
	46	78	0.025215694	0.08262878	1.5e-5	273.00000000416094	273.00000000416094	273.00000000416094	0	0	1	-60.0001403060998	60.0001403060998								
	47	76	0.055814513	0.18289741	6.77e-6	213.0000000062073	213.0000000062073	213.0000000062073	0	0	1	-60.0001403060998	60.0001403060998								
	49	80	0.02045	0.07182	1.7e-5	196.87238220814834	196.87238220814834	196.87238220814834	0	0	1	-60.0001403060998	60.0001403060998								
	49	80	0.02045	0.07182	1.7e-5	196.8723839215454	196.8723839215454	196.8723839215454	0	0	1	-60.0001403060998	60.0001403060998								
	50	71	0.026160102	0.08572349	1.44e-5	213.00000000563887	213.00000000563887	213.00000000563887	0	0	1	-60.0001403060998	60.0001403060998								
	52	77	0.047739825	0.15643763	7.92e-6	213.00000000552518	213.00000000552518	213.00000000552518	0	0	1	-60.0001403060998	60.0001403060998								
	53	58	0.020351993	0.06669102	1.86e-5	213.0	213.0	213.0	0	0	1	-60.0001403060998	60.0001403060998								
	54	59	0.002644342	0.00866519	0.00014291	213.00000000654836	213.00000000654836	213.00000000654836	0	0	1	-60.0001403060998	60.0001403060998								
	55	64	0.004202616	0.01377146	8.99e-5	213.00000000545697	213.00000000545697	213.00000000545697	0	0	1	-60.0001403060998	60.0001403060998								
	55	74	0.005760889	0.01887774	6.56e-5	213.00000000691216	213.00000000691216	213.00000000691216	0	0	1	-60.0001403060998	60.0001403060998								
	55	74	0.005760889	0.01887774	6.56e-5	213.00000000691216	213.00000000691216	213.00000000691216	0	0	1	-60.0001403060998	60.0001403060998								
	56	62	0.013268933	0.04348069	2.85e-5	317.532274309895	317.532274309895	317.532274309895	0	0	1	-60.0001403060998	60.0001403060998								
	56	75	0.004060954	0.01330726	9.31e-5	320.84167904748756	320.84167904748756	320.84167904748756	0	0	1	-60.0001403060998	60.0001403060998								
	57	78	0.00085	0.00358	0.000347955	364.0000000029104	364.0000000029104	364.0000000029104	0	0	1	-60.0001403060998	60.0001403060998								
	57	78	0.00085	0.00358	0.000347955	364.0000000029104	364.0000000029104	364.0000000029104	0	0	1	-60.0001403060998	60.0001403060998								
	58	72	0.028757224	0.09423395	1.31e-5	213.0000000057753	213.0000000057753	213.0000000057753	0	0	1	-60.0001403060998	60.0001403060998								
	59	62	0.052839628	0.17314907	7.15e-6	479.3302896384721	479.3302896384721	479.3302896384721	0	0	1	-60.0001403060998	60.0001403060998								
	62	75	0.012466186	0.04085018	3.03e-5	442.49610010527977	442.49610010527977	442.49610010527977	0	0	1	-60.0001403060998	60.0001403060998								
	65	79	0.044103854	0.144523	8.57e-6	213.00000000859472	213.00000000859472	213.00000000859472	0	0	1	-60.0001403060998	60.0001403060998								
	67	68	0.000424984	0.00139262	0.00088922	213.0	213.0	213.0	0	0	1	-60.0001403060998	60.0001403060998								
	67	68	0.000424984	0.00139262	0.00088922	213.0	213.0	213.0	0	0	1	-60.0001403060998	60.0001403060998								
	67	68	0.000472204	0.00154736	0.000800298	213.0	213.0	213.0	0	0	1	-60.0001403060998	60.0001403060998								
	67	68	0.000236102	0.00077368	0.001600595	213.0	213.0	213.0	0	0	1	-60.0001403060998	60.0001403060998								
	67	68	0.000519424	0.00170209	0.000727543	213.0	213.0	213.0	0	0	1	-60.0001403060998	60.0001403060998								
	67	68	0.000236102	0.00077368	0.001600595	213.0	213.0	213.0	0	0	1	-60.0001403060998	60.0001403060998								
	68	78	0.00128	0.00646	0.000320119	213.0	213.0	213.0	0	0	1	-60.0001403060998	60.0001403060998								
	68	78	0.00128	0.00646	0.000320119	213.0	213.0	213.0	0	0	1	-60.0001403060998	60.0001403060998								
	68	78	0.00128	0.00646	0.000320119	213.0	213.0	213.0	0	0	1	-60.0001403060998	60.0001403060998								
	68	78	0.00128	0.00646	0.000320119	213.0	213.0	213.0	0	0	1	-60.0001403060998	60.0001403060998								
	68	78	0.00128	0.00646	0.000333457	213.0	213.0	213.0	0	0	1	-60.0001403060998	60.0001403060998								
	68	78	0.00128	0.00646	0.000333457	213.0	213.0	213.0	0	0	1	-60.0001403060998	60.0001403060998								
	70	78	0.000310358	0.00329572	0.000351592	875.0000000014552	875.0000000014552	875.0000000014552	0	0	1	-60.0001403060998	60.0001403060998								
	70	78	0.000310358	0.00329572	0.000351592	875.0000000014552	875.0000000014552	875.0000000014552	0	0	1	-60.0001403060998	60.0001403060998								
	70	78	0.003069326	0.01005781	0.000123123	213.00000000509317	213.00000000509317	213.00000000509317	0	0	1	-60.0001403060998	60.0001403060998								
	71	76	0.02597122	0.08510455	1.46e-5	213.00000000600267	213.00000000600267	213.00000000600267	0	0	1	-60.0001403060998	60.0001403060998								
	73	75	0.023846302	0.07814145	1.58e-5	399.23083710626815	399.23083710626815	399.23083710626815	0	0	1	-60.0001403060998	60.0001403060998								
	74	81	0.04717318	0.15458081	8.01e-6	213.0	213.0	213.0	0	0	1	-60.0001403060998	60.0001403060998								
	74	81	0.003323719	0.03529485	3.28e-5	875.0	875.0	875.0	0	0	1	-60.0001403060998	60.0001403060998								
	77	79	0.070075074	0.22962755	5.39e-6	213.00000000568434	213.00000000568434	213.00000000568434	0	0	1	-60.0001403060998	60.0001403060998								
	82	84	0.25016	0.34128	4.63e-7	58.19691	58.19691	58.19691	0	0	1	-60.0001403060998	60.0001403060998
	
	%%modeling the transformer as lines between buses within the same substation
	10	85	2.00E-04	0.015999	0	1000	1000	1000	0	0	1	-60	60;
	2	86	2.00E-04	0.015999	0	1000	1000	1000	0	0	1	-60	60;
	25	87	2.00E-04	0.015999	0	1000	1000	1000	0	0	1	-60	60;
	36	88	2.00E-04	0.015999	0	1000	1000	1000	0	0	1	-60	60;
	40	89	2.00E-04	0.015999	0	1000	1000	1000	0	0	1	-60	60;
	55	90	2.00E-04	0.015999	0	1000	1000	1000	0	0	1	-60	60;
	70	91	2.00E-04	0.015999	0	1000	1000	1000	0	0	1	-60	60;
	55	92	2.00E-04	0.015999	0	1000	1000	1000	0	0	1	-60	60;
	78	93	2.00E-04	0.015999	0	1000	1000	1000	0	0	1	-60	60;
	81	94	2.00E-04	0.015999	0	1000	1000	1000	0	0	1	-60	60;
	18	95	2.00E-04	0.015999	0	1000	1000	1000	0	0	1	-60	60;
	27	96	2.00E-04	0.015999	0	1000	1000	1000	0	0	1	-60	60;
	62	97	2.00E-04	0.015999	0	1000	1000	1000	0	0	1	-60	60;
	9	98	2.00E-04	0.015999	0	1000	1000	1000	0	0	1	-60	60;
	84	99	2.00E-04	0.015999	0	1000	1000	1000	0	0	1	-60	60
		
	%%30-35 kV lines
	98	14	0.017311234	0.023616797	6.69015E-06	58.19691	58.19691	58.19691	0	0	1	-60	60;
	82	99	0.009255198	0.030328166	4.08315E-05	58.19691	58.19691	58.19691	0	0	1	-60	60;


	%%69 kV lines
	85	32	0.020592415	0.030133868	0.000144342	142.96067396016883	142.96067396016883	142.96067396016883	0	0	1	-60	60;
	85	69	0.017263778	0.025262914	0.000172173	93.21897	93.21897	93.21897	0	0	1	-60	60;
		   
	    
	%%225 kV lines
	95	41	0.121501157	0.603687821	1.91058E-06	740.0	740.0	740.0	0	0	1	-60	60;
	95	60	0.052000366	0.25836781	4.46414E-06	740.0	740.0	740.0	0	0	1	-60	60;
	95	60	0.052000366	0.25836781	4.46414E-06	740.0	740.0	740.0	0	0	1	-60	60;
	95	83	0.058856526	0.292433162	3.94412E-06	740.0	740.0	740.0	0	0	1	-60	60;
	96	51	0.009235465	0.045887119	2.51354E-05	740.0	740.0	740.0	0	0	1	-60	60;
	96	97	0.02213381	0.109973535	1.04879E-05	740.0000000016371	740.0000000016371	740.0000000016371	0	0	1	-60	60;
	96	63	0.045175514	0.224458007	5.13856E-06	740.0	740.0	740.0	0	0	1	-60	60;
	3	96	0.000313067	0.001555496	0.000741494	740.0	740.0	740.0	0	0	1	-60	60;


	%%330 kV lines
	86	61	0.013220786	0.07019632	1.65072E-05	875.0	875.0	875.0	0	0	1	-60	60;
	86	61	0.013220786	0.07019632	1.65072E-05	875.0	875.0	875.0	0	0	1	-60	60;
	86	93	0.06640716	0.352591605	3.28637E-06	1750.0000000007162	1750.0000000007162	1750.0000000007162	0	0	1	-60	60;
	15	87	0.074200147	0.393968794	2.94122E-06	875.0	875.0	875.0	0	0	1	-60	60;
	18	90	0.051276031	0.272252239	4.25616E-06	875.0	875.0	875.0	0	0	1	-60	60;
	23	34	0.042876587	0.227655036	5.08993E-06	875.0	875.0	875.0	0	0	1	-60	60;
	87	61	0.021529262	0.11431052	1.01368E-05	875.0	875.0	875.0	0	0	1	-60	60;
	87	61	0.021529262	0.11431052	1.01368E-05	875.0	875.0	875.0	0	0	1	-60	60;
	34	91	0.005336831	0.028336129	4.08929E-05	875.0000000019872	875.0000000019872	875.0000000019872	0	0	1	-60	60;
	34	91	0.005336831	0.028336129	4.08929E-05	875.0000000019872	875.0000000019872	875.0000000019872	0	0	1	-60	60;
	88	89	0.047788897	0.253737155	4.56673E-06	875.0000000012733	875.0000000012733	875.0000000012733	0	0	1	-60	60;
	38	94	0.041269473	0.219121998	5.28814E-06	875.0	875.0	875.0	0	0	1	-60	60;
	89	90	0.054065738	0.287064307	4.03654E-06	875.0000000015461	875.0000000015461	875.0000000015461	0	0	1	-60	60;
	91	93	0.00260777	0.013846063	8.36879E-05	875.0000000014552	875.0000000014552	875.0000000014552	0	0	1	-60	60;
	91	93	0.00260777	0.013846063	8.36879E-05	875.0000000014552	875.0000000014552	875.0000000014552	0	0	1	-60	60;
	92	94	0.027927395	0.148281675	7.8145E-06	875.0	875.0	875.0	0	0	1	-60	60;

												
];

%%-----  OPF Data  -----%%
%% cost data
%    1    startup    shutdown    n    x1    y1    ...    xn    yn
%    2    startup    shutdown    n    c(n-1)    ...    c0
mpc.gencost = [
	2	0.0	0.0	2	0.0	0.0
	2	0.0	0.0	2	0.0	0.0
	2	0.0	0.0	2	0.0	0.0
	2	0.0	0.0	2	71.74	0.0
	2	0.0	0.0	2	71.74	0.0
	2	0.0	0.0	2	71.74	0.0
	2	0.0	0.0	2	71.74	0.0
	2	0.0	0.0	2	71.74	0.0
	2	0.0	0.0	2	71.74	0.0
	2	0.0	0.0	2	71.74	0.0
	2	0.0	0.0	2	71.74	0.0
	2	0.0	0.0	2	71.74	0.0
	2	0.0	0.0	2	71.74	0.0
	2	0.0	0.0	2	71.74	0.0
	2	0.0	0.0	2	71.74	0.0
	2	0.0	0.0	2	71.74	0.0
	2	0.0	0.0	2	71.74	0.0
	2	0.0	0.0	2	0.0	0.0
	2	0.0	0.0	2	0.0	0.0
	2	0.0	0.0	2	0.0	0.0
	2	0.0	0.0	2	0.0	0.0
	2	0.0	0.0	2	0.0	0.0
	2	0.0	0.0	2	0.0	0.0
	2	0.0	0.0	2	0.0	0.0
	2	0.0	0.0	2	0.0	0.0
	2	0.0	0.0	2	0.0	0.0
	2	0.0	0.0	2	0.0	0.0
	2	0.0	0.0	2	0.0	0.0
	2	0.0	0.0	2	0.0	0.0
	2	0.0	0.0	2	0.0	0.0
];

% %% bus names
% mpc.bus_name = {
% 	'A3BSP_1'
% 	'Aboadze_2'
% 	'Abobo_3'
% 	'Achimota_4'
% 	'Aflao_5'
% 	'Akosombo_6'
% 	'Akwatia_7'
% 	'Akyempim_8'
% 	'Asawinso_9'
% 	'Asiekpe_10'
% 	'Ayanfuri_11'
% 	'Bawku_12'
% 	'Berekum_13'
% 	'Bibiani_14'
% 	'Bingerville_15'
% 	'Bogoso_16'
% 	'Bolgatanga_17'
% 	'Bolgatanga2_18'
% 	'BRElubo_19'
% 	'Bui_20'
% 	'Buipe_21'
% 	'CapeCoast_22'
% 	'Davie_23'
% 	'Dunkwa_24'
% 	'Dunkwa2_25'
% 	'Efasu_26'
% 	'Elubo_27'
% 	'EnclavedPower_28'
% 	'ESAyanfuri_29'
% 	'ESKenyase_30'
% 	'Essiama_31'
% 	'Ho_32'
% 	'Industry_33'
% 	'JNSunonAsogli_34'
% 	'Juabeso_35'
% 	'K2BSP_36'
% 	'KarPower_37'
% 	'Kara_38'
% 	'Kenyase_39'
% 	'Kintampo_40'
% 	'Kodeni_41'
% 	'Konongo_42'
% 	'Kpandue_43'
% 	'Kpevee_44'
% 	'Kpong_45'
% 	'KpongGS_46'
% 	'Kumasi_47'
% 	'LomeAflao_48'
% 	'Mallam_49'
% 	'Mim_50'
% 	'Moyassue_51'
% 	'Navrongo_52'
% 	'NewAbirem_53'
% 	'NewObuasi_54'
% 	'NewTamale_55'
% 	'NewTarkwa_56'
% 	'NewTema_57'
% 	'Nkawkaw_58'
% 	'Obuasi_59'
% 	'OuagaSud_60'
% 	'PP330_61'
% 	'Prestea_62'
% 	'Riviera_63'
% 	'Savannah_64'
% 	'Sawla_65'
% 	'Sinkasse_66'
% 	'SmelterI_67'
% 	'SmelterII_68'
% 	'Sogakope_69'
% 	'SunonAsogli_70'
% 	'Sunyani_71'
% 	'Tafo_72'
% 	'Takoradi_73'
% 	'Tamale_74'
% 	'Tarkwa_75'
% 	'Techiman_76'
% 	'Tumu_77'
% 	'Volta_78'
% 	'Wa_79'
% 	'Winneba_80'
% 	'Yendi_81'
% 	'Youga_82'
% 	'Zagtouli_83'
% 	'Zebilla_84'
% };

% %%-----  Elctricity Access Rates (2022) -----%% 
% %% The electricity access rates are the percentage of the population with access to electricity in each substation/region.
% mpc.elecrates = {
% 	0.9815
% 	1.0
% 	1.0
% 	1.0
% 	0.8413
% 	0.929
% 	0.87375
% 	0.666
% 	0.7318
% 	0.779
% 	0.9515
% 	0.4938
% 	0.8783
% 	1.0
% 	1.0
% 	0.716
% 	0.677
% 	1.0
% 	1.0
% 	1.0
% 	0.6063
% 	0.932875
% 	1.0
% 	0.72375
% 	0.636
% 	1.0
% 	0.9325
% 	1.0
% 	1.0
% 	1.0
% 	0.916
% 	0.8043
% 	1.0
% 	1.0
% 	0.5966
% 	0.9539
% 	1.0
% 	1.0
% 	0.8206
% 	0.63
% 	1.0
% 	0.895
% 	0.7973
% 	0.923
% 	0.562
% 	0.799
% 	0.9983
% 	1.0
% 	0.90925
% 	0.7275
% 	1.0
% 	0.4845
% 	0.8706
% 	0.82925
% 	0.76025
% 	0.791
% 	1.0
% 	0.7793
% 	0.997
% 	1.0
% 	1.0
% 	0.866
% 	1.0
% 	1.0
% 	0.4623
% 	1.0
% 	1.0
% 	1.0
% 	0.935
% 	1.0
% 	0.90175
% 	0.8213
% 	0.9875
% 	0.929
% 	0.8953
% 	0.7061
% 	0.9395
% 	1.0
% 	0.715
% 	0.891428571
% 	0.4341428571
% 	1.0
% 	1.0
% 	0.542
% };

%column_names% col_1 
mpc.genfuel = {
	'hydro'
	'hydro'
	'hydro'
	'ng'
	'ng'
	'ng'
	'ng'
	'ng'
	'ng'
	'ng'
	'ng'
	'ng'
	'ng'
	'ng'
	'ng'
	'ng'
	'ng'
	'solar'
	'solar'
	'solar'
	'solar'
	'solar'
	'hydro'
	'solar'
	'biogas'
	'solar'
	'solar'
	'solar'
	'solar'
	'solar'
};

